Version 4
SHEET 1 3028 680
WIRE 1568 -16 1152 -16
WIRE 80 64 32 64
WIRE 192 64 80 64
WIRE 432 64 272 64
WIRE 480 64 432 64
WIRE 576 64 480 64
WIRE 688 64 640 64
WIRE 800 64 688 64
WIRE 864 64 800 64
WIRE 1216 80 1184 80
WIRE 1472 80 1440 80
WIRE 2192 80 2192 64
WIRE 2192 80 2176 80
WIRE 2208 80 2192 80
WIRE 2464 80 2256 80
WIRE 2544 80 2544 48
WIRE 2544 80 2464 80
WIRE 1184 96 1184 80
WIRE 2176 96 2176 80
WIRE 2208 96 2208 80
WIRE 2256 112 2256 80
WIRE 2256 112 2224 112
WIRE 2544 112 2544 80
WIRE 2160 128 2032 128
WIRE 480 144 480 64
WIRE 1152 144 1152 -16
WIRE 1216 144 1152 144
WIRE 1632 144 1632 112
WIRE 1632 144 1440 144
WIRE 2256 144 2224 144
WIRE 592 176 528 176
WIRE 640 176 592 176
WIRE 1632 176 1632 144
WIRE 2256 176 2256 144
WIRE 2432 176 2256 176
WIRE 528 192 528 176
WIRE 528 192 432 192
WIRE 32 208 32 64
WIRE 1216 208 1072 208
WIRE 1568 208 1568 -16
WIRE 1568 208 1440 208
WIRE 432 224 432 192
WIRE 560 224 528 224
WIRE 640 224 640 176
WIRE 1072 224 1072 208
WIRE 1072 224 640 224
WIRE 2032 224 2032 128
WIRE 2096 224 2032 224
WIRE 560 240 560 224
WIRE 2432 256 2432 176
WIRE 1216 272 1136 272
WIRE 1504 272 1440 272
WIRE 1568 272 1568 208
WIRE 1632 272 1632 256
WIRE 1632 272 1568 272
WIRE 2432 272 2432 256
WIRE 2096 288 2096 224
WIRE 2144 288 2096 288
WIRE 2256 288 2256 176
WIRE 2256 288 2224 288
WIRE 1632 304 1632 272
WIRE 1136 416 1136 272
WIRE 1504 432 1504 272
WIRE 1552 432 1504 432
WIRE 1712 432 1552 432
WIRE 1776 432 1712 432
WIRE 1904 432 1856 432
WIRE 2032 432 2032 224
WIRE 2032 432 1904 432
FLAG 32 288 0
FLAG 864 144 0
FLAG 640 352 0
FLAG 592 176 swl2
FLAG 800 64 load
FLAG 80 64 swint1
FLAG 432 64 swint2
FLAG 560 240 0
FLAG 480 320 0
FLAG 176 224 0
FLAG 224 208 0
FLAG 224 160 0
FLAG 688 128 0
FLAG 1184 96 0
FLAG 1472 80 swint1
FLAG 1136 496 0
FLAG 2192 64 0
FLAG 1632 368 0
FLAG 1632 32 swint1
FLAG 2208 160 swint1
FLAG 2432 352 0
FLAG 2544 192 0
FLAG 2544 -32 load
FLAG 1552 432 vpwm
FLAG 2432 256 vref
FLAG 2464 80 fb
FLAG 1904 496 0
FLAG 1712 496 0
SYMBOL voltage 32 192 R0
WINDOW 123 0 0 Left 0
WINDOW 39 0 0 Left 0
SYMATTR InstName V2
SYMATTR Value EXP(0 3.3 200u 5u 20m 100u)
SYMBOL sw 176 240 R180
SYMATTR InstName S2
SYMATTR Value MYSW
SYMBOL res 848 48 R0
SYMATTR InstName R1
SYMATTR Value 10k
SYMBOL voltage 640 256 R0
WINDOW 3 36 89 Left 2
WINDOW 123 0 0 Left 0
WINDOW 39 0 0 Left 0
SYMATTR Value PULSE(0 3.3 701u 1n 1n 2.5u 5u 5000)
SYMATTR InstName V3
SYMBOL ind 176 80 R270
WINDOW 0 32 56 VTop 2
WINDOW 3 5 56 VBottom 2
SYMATTR InstName L1
SYMATTR Value 55n
SYMATTR SpiceLine Ipk=27 Rser=0.00027 Rpar=29.3 Cpar=29.299p mfg="Würth Elektronik" pn="744340300055 WE-HCM 4030"
SYMBOL schottky 576 80 R270
WINDOW 0 32 32 VTop 2
WINDOW 3 0 32 VBottom 2
SYMATTR InstName D1
SYMATTR Value 1N5817
SYMATTR Description Diode
SYMATTR Type diode
SYMBOL res 464 224 R0
SYMATTR InstName R2
SYMATTR Value 1
SYMBOL nmos 432 144 R0
SYMATTR InstName M1
SYMATTR Value NTLMS4502N
SYMBOL cap 672 64 R0
SYMATTR InstName C1
SYMATTR Value 450n
SYMBOL Misc\\NE555 1328 176 R0
SYMATTR InstName U1
SYMBOL voltage 1136 400 R0
WINDOW 123 0 0 Left 0
WINDOW 39 0 0 Left 0
SYMATTR InstName V4
SYMATTR Value PWL(0 0 1m 0 1.1m 3.3)
SYMBOL res 1648 128 R180
WINDOW 0 36 76 Left 2
WINDOW 3 36 40 Left 2
SYMATTR InstName R3
SYMATTR Value 10k
SYMBOL res 1616 160 R0
SYMATTR InstName R4
SYMATTR Value 10k
SYMBOL cap 1616 304 R0
SYMATTR InstName C3
SYMATTR Value 450p
SYMBOL voltage 2432 256 R0
SYMATTR InstName V1
SYMATTR Value EXP(0 1 200u 5u 20m 100u)
SYMBOL res 2528 -48 R0
SYMATTR InstName R5
SYMATTR Value 800K
SYMBOL res 2528 96 R0
SYMATTR InstName R6
SYMATTR Value 100K
SYMBOL Opamps\\ADA4097-1 2192 128 R180
SYMATTR InstName U3
SYMBOL res 2240 272 R90
WINDOW 0 0 56 VBottom 2
WINDOW 3 32 56 VTop 2
SYMATTR InstName R9
SYMATTR Value 900K
SYMBOL cap 1888 432 R0
SYMATTR InstName C2
SYMATTR Value 225.1p
SYMBOL ind 1760 448 R270
WINDOW 0 32 56 VTop 2
WINDOW 3 5 56 VBottom 2
SYMATTR InstName L2
SYMATTR Value 255.1n
SYMATTR SpiceLine Rser=0.00027 Rpar=29.3 Cpar=29.299p
SYMBOL cap 1696 432 R0
SYMATTR InstName C4
SYMATTR Value 225.1p
TEXT -104 72 Left 2 !.tran 5m
TEXT -104 360 Left 2 !.model MYSW SW(Ron=1m Roff=1000Meg Vt=.5 Vh=-.4)
TEXT 2456 400 Left 2 ;EXP(0 1 200u 5u 20m 100u)
TEXT 1736 176 Left 2 ;Max gain of 281.82%
