Version 4
SHEET 1 3240 932
WIRE 80 64 32 64
WIRE 192 64 80 64
WIRE 432 64 272 64
WIRE 480 64 432 64
WIRE 576 64 480 64
WIRE 688 64 640 64
WIRE 1536 64 688 64
WIRE 2176 64 1536 64
WIRE 2320 64 2176 64
WIRE 480 144 480 64
WIRE 32 208 32 64
WIRE 432 224 416 224
WIRE 2176 384 2176 64
WIRE 1200 400 784 400
WIRE 848 496 816 496
WIRE 1104 496 1072 496
WIRE 1824 496 1824 480
WIRE 1824 496 1808 496
WIRE 1840 496 1824 496
WIRE 2096 496 1888 496
WIRE 2176 496 2176 464
WIRE 2176 496 2096 496
WIRE 816 512 816 496
WIRE 1808 512 1808 496
WIRE 1840 512 1840 496
WIRE 1888 528 1888 496
WIRE 1888 528 1856 528
WIRE 2176 528 2176 496
WIRE 1792 544 1664 544
WIRE 784 560 784 400
WIRE 848 560 784 560
WIRE 1264 560 1264 528
WIRE 1264 560 1072 560
WIRE 1888 560 1856 560
WIRE 1264 592 1264 560
WIRE 1888 592 1888 560
WIRE 2064 592 1888 592
WIRE 416 624 416 224
WIRE 528 624 416 624
WIRE 848 624 528 624
WIRE 1200 624 1200 400
WIRE 1200 624 1072 624
WIRE 2064 672 2064 592
WIRE 848 688 768 688
WIRE 1136 688 1072 688
WIRE 1200 688 1200 624
WIRE 1264 688 1264 672
WIRE 1264 688 1200 688
WIRE 2064 688 2064 672
WIRE 1664 704 1664 544
WIRE 1776 704 1664 704
WIRE 1888 704 1888 592
WIRE 1888 704 1856 704
WIRE 1264 720 1264 688
WIRE 768 832 768 688
WIRE 1136 848 1136 688
WIRE 1184 848 1136 848
WIRE 1344 848 1184 848
WIRE 1408 848 1344 848
WIRE 1536 848 1488 848
WIRE 1664 848 1664 704
WIRE 1664 848 1536 848
FLAG 32 288 0
FLAG 2320 144 0
FLAG 528 624 swl2
FLAG 1536 64 out
FLAG 80 64 swint1
FLAG 432 64 swint2
FLAG 480 320 0
FLAG 688 128 0
FLAG 816 512 0
FLAG 1104 496 swint1
FLAG 768 912 0
FLAG 1824 480 0
FLAG 1264 784 0
FLAG 1264 448 swint1
FLAG 1840 576 swint1
FLAG 2064 768 0
FLAG 2176 608 0
FLAG 1184 848 vpwm
FLAG 2064 672 vref
FLAG 2096 496 fb
FLAG 1536 912 0
FLAG 1344 912 0
SYMBOL voltage 32 192 R0
WINDOW 123 0 0 Left 0
WINDOW 39 0 0 Left 0
SYMATTR InstName V2
SYMATTR Value EXP(0 3.3 200u 5u 20m 100u)
SYMBOL res 2304 48 R0
SYMATTR InstName RLOAD
SYMATTR Value 10k
SYMBOL ind 176 80 R270
WINDOW 0 32 56 VTop 2
WINDOW 3 5 56 VBottom 2
SYMATTR InstName L1
SYMATTR Value 55n
SYMATTR SpiceLine Ipk=27 Rser=0.00027 Rpar=29.3 Cpar=29.299p mfg="Würth Elektronik" pn="744340300055 WE-HCM 4030"
SYMBOL schottky 576 80 R270
WINDOW 0 32 32 VTop 2
WINDOW 3 0 32 VBottom 2
SYMATTR InstName D1
SYMATTR Value 1N5817
SYMATTR Description Diode
SYMATTR Type diode
SYMBOL res 464 224 R0
SYMATTR InstName R2
SYMATTR Value 1
SYMBOL nmos 432 144 R0
SYMATTR InstName M1
SYMATTR Value NTLMS4502N
SYMBOL cap 672 64 R0
SYMATTR InstName C1
SYMATTR Value 450n
SYMBOL Misc\\NE555 960 592 R0
SYMATTR InstName U1
SYMBOL voltage 768 816 R0
WINDOW 123 0 0 Left 0
WINDOW 39 0 0 Left 0
SYMATTR InstName V4
SYMATTR Value PWL(0 0 1m 0 1.1m 3.3)
SYMBOL res 1280 544 R180
WINDOW 0 36 76 Left 2
WINDOW 3 36 40 Left 2
SYMATTR InstName R3
SYMATTR Value 10k
SYMBOL res 1248 576 R0
SYMATTR InstName R4
SYMATTR Value 10k
SYMBOL cap 1248 720 R0
SYMATTR InstName C3
SYMATTR Value 450p
SYMBOL voltage 2064 672 R0
SYMATTR InstName V1
SYMATTR Value EXP(0 1 200u 5u 20m 100u)
SYMBOL res 2160 368 R0
SYMATTR InstName R5
SYMATTR Value 800K
SYMBOL res 2160 512 R0
SYMATTR InstName R6
SYMATTR Value 100K
SYMBOL Opamps\\ADA4097-1 1824 544 R180
SYMATTR InstName U3
SYMBOL res 1872 688 R90
WINDOW 0 0 56 VBottom 2
WINDOW 3 32 56 VTop 2
SYMATTR InstName R9
SYMATTR Value 500K
SYMBOL cap 1520 848 R0
SYMATTR InstName C2
SYMATTR Value 225.1p
SYMBOL ind 1392 864 R270
WINDOW 0 32 56 VTop 2
WINDOW 3 5 56 VBottom 2
SYMATTR InstName L2
SYMATTR Value 255.1n
SYMATTR SpiceLine Rser=0.00027 Rpar=29.3 Cpar=29.299p
SYMBOL cap 1328 848 R0
SYMATTR InstName C4
SYMATTR Value 225.1p
TEXT 1056 256 Left 2 !.tran 5m
TEXT 1384 616 Left 2 ;Max gain of 281.82%
TEXT 1048 168 Left 2 ;Adjust R5 and R6 such that when v(out) is at the desired voltage v(fb) is 1V.\ni.e.\nv(out) = 1V * (1 + R5/R6)
